data_image0
_cell_length_a       14.07
_cell_length_b       14.07
_cell_length_c       14.07
_cell_angle_alpha    90
_cell_angle_beta     90
_cell_angle_gamma    90

_symmetry_space_group_name_H-M    "P 1"
_symmetry_int_tables_number       1

loop_
  _symmetry_equiv_pos_as_xyz
  'x, y, z'

loop_
  _atom_site_label
  _atom_site_occupancy
  _atom_site_fract_x
  _atom_site_fract_y
  _atom_site_fract_z
  _atom_site_thermal_displace_type
  _atom_site_B_iso_or_equiv
  _atom_site_type_symbol
  Zr1      1.0000 0.00000  0.00000  0.00000  Biso   1.000  Zr
  Zr2      1.0000 0.12500  0.12500  0.12500  Biso   1.000  Zr
  Zr3      1.0000 0.00000  0.00000  0.25000  Biso   1.000  Zr
  Zr4      1.0000 0.12500  0.12500  0.37500  Biso   1.000  Zr
  Zr5      1.0000 0.00000  0.00000  0.50000  Biso   1.000  Zr
  Zr6      1.0000 0.12500  0.12500  0.62500  Biso   1.000  Zr
  Zr7      1.0000 0.00000  0.00000  0.75000  Biso   1.000  Zr
  Zr8      1.0000 0.12500  0.12500  0.87500  Biso   1.000  Zr
  Zr9      1.0000 0.00000  0.25000  0.00000  Biso   1.000  Zr
  Zr10     1.0000 0.12500  0.37500  0.12500  Biso   1.000  Zr
  Zr11     1.0000 0.00000  0.25000  0.25000  Biso   1.000  Zr
  Zr12     1.0000 0.12500  0.37500  0.37500  Biso   1.000  Zr
  Zr13     1.0000 0.00000  0.25000  0.50000  Biso   1.000  Zr
  Zr14     1.0000 0.12500  0.37500  0.62500  Biso   1.000  Zr
  Zr15     1.0000 0.00000  0.25000  0.75000  Biso   1.000  Zr
  Zr16     1.0000 0.12500  0.37500  0.87500  Biso   1.000  Zr
  Zr17     1.0000 0.00000  0.50000  0.00000  Biso   1.000  Zr
  Zr18     1.0000 0.12500  0.62500  0.12500  Biso   1.000  Zr
  Zr19     1.0000 0.00000  0.50000  0.25000  Biso   1.000  Zr
  Zr20     1.0000 0.12500  0.62500  0.37500  Biso   1.000  Zr
  Zr21     1.0000 0.00000  0.50000  0.50000  Biso   1.000  Zr
  Zr22     1.0000 0.12500  0.62500  0.62500  Biso   1.000  Zr
  Zr23     1.0000 0.00000  0.50000  0.75000  Biso   1.000  Zr
  Zr24     1.0000 0.12500  0.62500  0.87500  Biso   1.000  Zr
  Zr25     1.0000 0.00000  0.75000  0.00000  Biso   1.000  Zr
  Zr26     1.0000 0.12500  0.87500  0.12500  Biso   1.000  Zr
  Zr27     1.0000 0.00000  0.75000  0.25000  Biso   1.000  Zr
  Zr28     1.0000 0.12500  0.87500  0.37500  Biso   1.000  Zr
  Zr29     1.0000 0.00000  0.75000  0.50000  Biso   1.000  Zr
  Zr30     1.0000 0.12500  0.87500  0.62500  Biso   1.000  Zr
  Zr31     1.0000 0.00000  0.75000  0.75000  Biso   1.000  Zr
  Zr32     1.0000 0.12500  0.87500  0.87500  Biso   1.000  Zr
  Zr33     1.0000 0.25000  0.00000  0.00000  Biso   1.000  Zr
  Zr34     1.0000 0.37500  0.12500  0.12500  Biso   1.000  Zr
  Zr35     1.0000 0.25000  0.00000  0.25000  Biso   1.000  Zr
  Zr36     1.0000 0.37500  0.12500  0.37500  Biso   1.000  Zr
  Zr37     1.0000 0.25000  0.00000  0.50000  Biso   1.000  Zr
  Zr38     1.0000 0.37500  0.12500  0.62500  Biso   1.000  Zr
  Zr39     1.0000 0.25000  0.00000  0.75000  Biso   1.000  Zr
  Zr40     1.0000 0.37500  0.12500  0.87500  Biso   1.000  Zr
  Zr41     1.0000 0.25000  0.25000  0.00000  Biso   1.000  Zr
  Zr42     1.0000 0.37500  0.37500  0.12500  Biso   1.000  Zr
  Zr43     1.0000 0.25000  0.25000  0.25000  Biso   1.000  Zr
  Zr44     1.0000 0.37500  0.37500  0.37500  Biso   1.000  Zr
  Zr45     1.0000 0.25000  0.25000  0.50000  Biso   1.000  Zr
  Zr46     1.0000 0.37500  0.37500  0.62500  Biso   1.000  Zr
  Zr47     1.0000 0.25000  0.25000  0.75000  Biso   1.000  Zr
  Zr48     1.0000 0.37500  0.37500  0.87500  Biso   1.000  Zr
  Zr49     1.0000 0.25000  0.50000  0.00000  Biso   1.000  Zr
  Zr50     1.0000 0.37500  0.62500  0.12500  Biso   1.000  Zr
  Zr51     1.0000 0.25000  0.50000  0.25000  Biso   1.000  Zr
  Zr52     1.0000 0.37500  0.62500  0.37500  Biso   1.000  Zr
  Zr53     1.0000 0.25000  0.50000  0.50000  Biso   1.000  Zr
  Zr54     1.0000 0.37500  0.62500  0.62500  Biso   1.000  Zr
  Zr55     1.0000 0.25000  0.50000  0.75000  Biso   1.000  Zr
  Zr56     1.0000 0.37500  0.62500  0.87500  Biso   1.000  Zr
  Zr57     1.0000 0.25000  0.75000  0.00000  Biso   1.000  Zr
  Zr58     1.0000 0.37500  0.87500  0.12500  Biso   1.000  Zr
  Zr59     1.0000 0.25000  0.75000  0.25000  Biso   1.000  Zr
  Zr60     1.0000 0.37500  0.87500  0.37500  Biso   1.000  Zr
  Zr61     1.0000 0.25000  0.75000  0.50000  Biso   1.000  Zr
  Zr62     1.0000 0.37500  0.87500  0.62500  Biso   1.000  Zr
  Zr63     1.0000 0.25000  0.75000  0.75000  Biso   1.000  Zr
  Zr64     1.0000 0.37500  0.87500  0.87500  Biso   1.000  Zr
  Zr65     1.0000 0.50000  0.00000  0.00000  Biso   1.000  Zr
  Zr66     1.0000 0.62500  0.12500  0.12500  Biso   1.000  Zr
  Zr67     1.0000 0.50000  0.00000  0.25000  Biso   1.000  Zr
  Zr68     1.0000 0.62500  0.12500  0.37500  Biso   1.000  Zr
  Zr69     1.0000 0.50000  0.00000  0.50000  Biso   1.000  Zr
  Zr70     1.0000 0.62500  0.12500  0.62500  Biso   1.000  Zr
  Zr71     1.0000 0.50000  0.00000  0.75000  Biso   1.000  Zr
  Zr72     1.0000 0.62500  0.12500  0.87500  Biso   1.000  Zr
  Zr73     1.0000 0.50000  0.25000  0.00000  Biso   1.000  Zr
  Zr74     1.0000 0.62500  0.37500  0.12500  Biso   1.000  Zr
  Zr75     1.0000 0.50000  0.25000  0.25000  Biso   1.000  Zr
  Zr76     1.0000 0.62500  0.37500  0.37500  Biso   1.000  Zr
  Zr77     1.0000 0.50000  0.25000  0.50000  Biso   1.000  Zr
  Zr78     1.0000 0.62500  0.37500  0.62500  Biso   1.000  Zr
  Zr79     1.0000 0.50000  0.25000  0.75000  Biso   1.000  Zr
  Zr80     1.0000 0.62500  0.37500  0.87500  Biso   1.000  Zr
  Zr81     1.0000 0.50000  0.50000  0.00000  Biso   1.000  Zr
  Zr82     1.0000 0.62500  0.62500  0.12500  Biso   1.000  Zr
  Zr83     1.0000 0.50000  0.50000  0.25000  Biso   1.000  Zr
  Zr84     1.0000 0.62500  0.62500  0.37500  Biso   1.000  Zr
  Zr85     1.0000 0.50000  0.50000  0.50000  Biso   1.000  Zr
  Zr86     1.0000 0.62500  0.62500  0.62500  Biso   1.000  Zr
  Zr87     1.0000 0.50000  0.50000  0.75000  Biso   1.000  Zr
  Zr88     1.0000 0.62500  0.62500  0.87500  Biso   1.000  Zr
  Zr89     1.0000 0.50000  0.75000  0.00000  Biso   1.000  Zr
  Zr90     1.0000 0.62500  0.87500  0.12500  Biso   1.000  Zr
  Zr91     1.0000 0.50000  0.75000  0.25000  Biso   1.000  Zr
  Zr92     1.0000 0.62500  0.87500  0.37500  Biso   1.000  Zr
  Zr93     1.0000 0.50000  0.75000  0.50000  Biso   1.000  Zr
  Zr94     1.0000 0.62500  0.87500  0.62500  Biso   1.000  Zr
  Zr95     1.0000 0.50000  0.75000  0.75000  Biso   1.000  Zr
  Zr96     1.0000 0.62500  0.87500  0.87500  Biso   1.000  Zr
  Zr97     1.0000 0.75000  0.00000  0.00000  Biso   1.000  Zr
  Zr98     1.0000 0.87500  0.12500  0.12500  Biso   1.000  Zr
  Zr99     1.0000 0.75000  0.00000  0.25000  Biso   1.000  Zr
  Zr100    1.0000 0.87500  0.12500  0.37500  Biso   1.000  Zr
  Zr101    1.0000 0.75000  0.00000  0.50000  Biso   1.000  Zr
  Zr102    1.0000 0.87500  0.12500  0.62500  Biso   1.000  Zr
  Zr103    1.0000 0.75000  0.00000  0.75000  Biso   1.000  Zr
  Zr104    1.0000 0.87500  0.12500  0.87500  Biso   1.000  Zr
  Zr105    1.0000 0.75000  0.25000  0.00000  Biso   1.000  Zr
  Zr106    1.0000 0.87500  0.37500  0.12500  Biso   1.000  Zr
  Zr107    1.0000 0.75000  0.25000  0.25000  Biso   1.000  Zr
  Zr108    1.0000 0.87500  0.37500  0.37500  Biso   1.000  Zr
  Zr109    1.0000 0.75000  0.25000  0.50000  Biso   1.000  Zr
  Zr110    1.0000 0.87500  0.37500  0.62500  Biso   1.000  Zr
  Zr111    1.0000 0.75000  0.25000  0.75000  Biso   1.000  Zr
  Zr112    1.0000 0.87500  0.37500  0.87500  Biso   1.000  Zr
  Zr113    1.0000 0.75000  0.50000  0.00000  Biso   1.000  Zr
  Zr114    1.0000 0.87500  0.62500  0.12500  Biso   1.000  Zr
  Zr115    1.0000 0.75000  0.50000  0.25000  Biso   1.000  Zr
  Zr116    1.0000 0.87500  0.62500  0.37500  Biso   1.000  Zr
  Zr117    1.0000 0.75000  0.50000  0.50000  Biso   1.000  Zr
  Zr118    1.0000 0.87500  0.62500  0.62500  Biso   1.000  Zr
  Zr119    1.0000 0.75000  0.50000  0.75000  Biso   1.000  Zr
  Zr120    1.0000 0.87500  0.62500  0.87500  Biso   1.000  Zr
  Zr121    1.0000 0.75000  0.75000  0.00000  Biso   1.000  Zr
  Zr122    1.0000 0.87500  0.87500  0.12500  Biso   1.000  Zr
  Zr123    1.0000 0.75000  0.75000  0.25000  Biso   1.000  Zr
  Zr124    1.0000 0.87500  0.87500  0.37500  Biso   1.000  Zr
  Zr125    1.0000 0.75000  0.75000  0.50000  Biso   1.000  Zr
  Zr126    1.0000 0.87500  0.87500  0.62500  Biso   1.000  Zr
  Zr127    1.0000 0.75000  0.75000  0.75000  Biso   1.000  Zr
  Zr128    1.0000 0.87500  0.87500  0.87500  Biso   1.000  Zr
